          12
E =     0.000000000
Ti   8.2993545  -4.6527892 -18.4278202
Ti -12.5896143   0.2599739 -16.7864571
O   -1.2995105  -1.4673924 -11.9908542
O   -2.8743204   1.5604115   5.6725887
O    4.0988103  -0.0493083   5.1074536
O  -11.0622505  -0.8475342  -6.2199191
Ti   5.2233095  11.4827883  32.2417498
O   -0.7921343   1.1152744   2.9707618
Ti   1.9587194  -3.9978031  33.4738610
O    8.9125657  -5.8429220  -8.7080494
O    9.6906940  -1.0471612  -9.8130765
O   -9.5656234   3.4864622  -7.5202384
          12
E =     0.000000000
Ti   8.3323892  -4.6185243 -18.5152865
Ti -12.5649578   0.4325297 -16.8806314
O   -1.4150959  -1.5756362 -11.8558178
O   -2.8809311   1.4884676   5.6621029
O    4.0721579  -0.1136363   5.0977436
O  -10.6027718  -1.3502052  -6.7237437
Ti   5.4024417  11.7782369  30.5090992
O   -0.7866484   1.2994219   3.0879390
Ti   2.0992922  -3.9320756  34.6040041
O    8.2921324  -5.9166643  -8.9438484
O    9.8716262  -1.0527320  -9.2436050
O   -9.8196345   3.5608180  -6.7979561
          12
E =     0.000000000
Ti   8.5588225  -4.6299531 -18.9579909
Ti -12.6436964   0.5933954 -16.7714125
O   -1.3779909  -1.2330404 -11.6311569
O   -2.4088131   1.1788391   4.7062757
O    3.4613827  -0.1180020   4.1973985
O   -8.9714432  -1.1543763  -4.7652876
Ti   5.1835226   9.2025907  27.8519999
O    0.5382456   1.1770060   3.8774858
Ti   4.5714282  -2.7363022  28.8432602
O    4.1670412  -4.1817875  -5.1672911
O    6.7456725  -0.7546766  -6.6337202
O   -7.8241717   2.6563070  -5.5495611
          12
E =     0.000000000
Ti   8.7207574  -3.9483074 -17.5841523
Ti -11.7596537   1.5924527 -16.5691718
O   -0.7831203  -1.3240921 -11.9566673
O   -2.0929854   1.2082468   4.1489739
O    2.2258720   0.0289679   2.7107565
O   -4.1650211  -1.5637613  -2.1591857
Ti  -3.4838003   9.1289293  30.5533625
O   -0.0396109  -0.3007133   3.7398554
Ti  -3.8193652   0.5578592  25.9813208
O    7.7584259  -5.5762304  -6.3135662
O   10.4558172  -1.0635029  -7.8291682
O   -3.0173155   1.2601514  -4.7223577
          12
E =     0.000000000
Ti   8.2174025  -3.0171826 -12.6897300
Ti  -7.0214868  -0.0996603 -11.1580777
O    3.5758270  -2.2484010 -10.0637436
O   -1.6479302   0.8229333   4.1185306
O    1.0159688   0.0588296   0.6882323
O  -11.5142136   4.0535037   1.2601367
Ti  -8.6569615   5.4131660  30.6993502
O   -1.9319593   0.1963715  -1.9952243
Ti   4.0453702   1.1388667  19.0805430
O    5.7405264  -5.7014703  -5.1012406
O   10.8714655  -0.2155785 -11.8607158
O   -2.6940090  -0.4013782  -2.9780609
          12
E =     0.000000000
Ti  11.2530101  20.2868459  -3.8432733
Ti -19.5799970 -36.0369996   9.1348035
O   17.2913266   9.8792118  -2.6885459
O    0.3547812   1.9795724   4.1233477
O    0.3687872   1.5124570  -2.9474097
O   17.3401115   6.1251691   1.2782879
Ti  -1.3066469   4.5483114  -6.8149467
O    8.9727795  12.0795203  -1.1347095
Ti  20.1087693   3.0784263  -5.0036514
O   -9.1464791  -2.9117124   0.6351783
O    1.6108077  -9.5272072  -1.7694256
O  -47.2672500 -11.0135949   9.0303446
          12
E =     0.000000000
Ti  13.9400941  27.0302631  -7.7457470
Ti -13.3756734 -33.6828751  10.8489890
O   17.3788951  11.9670019  -3.0883469
O   -0.2201630   2.3896129   2.3898577
O   -1.8793902   2.1035525  -4.5413416
O   19.2697660   4.4849460   0.6632734
Ti  26.8728272 -27.4048508  10.7728501
O    9.4344603  15.4629736  -0.3845693
Ti  16.1370829   4.4682256  -5.7475427
O  -10.5049162  -2.0142043  -0.2707474
O    1.5719633  -8.2754014  -1.3337272
O  -78.6249461   3.4707561  -1.5629480
          12
E =     0.000000000
Ti  16.4011349  34.0567962 -10.1030915
Ti  -7.8185852 -34.9364349  10.2726956
O   10.1769145   4.8120277   4.1560214
O   -0.1988516   1.5518753   1.8414695
O   -0.4007192   3.1611183  -3.0900441
O   35.1508833   4.2056961   0.1473231
Ti  26.2300258 -19.4926413   2.4787813
O    8.8506028  15.4445050  -3.0875632
Ti   1.5176715   7.3315622  -6.4224325
O  -11.5819005  -1.9729270  -0.1682806
O   24.8019483 -19.2841628   2.3663356
O -103.1291247   5.1225851   1.6087853
          12
E =     0.000000000
Ti  15.0864904  41.6833865 -11.2151887
Ti   7.4171819 -36.2352085   9.2204941
O    4.7976115  10.6706323   5.9629401
O    1.0584475   0.7514121   2.1427324
O    0.4765763   1.8568827  -3.2065993
O   43.1720213   0.2922216  -2.2488170
Ti-223.3470595  39.9817520  87.6153091
O    3.8334375   6.5948949  -5.1869184
Ti -12.5434499   9.3532782  -7.0866857
O  -14.9952776  -0.0454822  -0.5204543
O  207.2830811 -91.2370746 -60.2555185
O  -32.2390605  16.3333048 -15.2212937
          12
E =     0.000000000
Ti  -5.4873295   0.0005727  -1.5244758
Ti   6.5073413  31.9494983  -6.6991358
O   -1.0950471  13.0097846   3.2452689
O   -2.6028642   4.5976695  -4.5544016
O   -1.5738493   3.1997722   4.3499177
O   29.8271716  -4.8096824   0.8446443
Ti-394.0012215  98.6431443 -15.9131522
O    4.1290904  16.8579921  -2.6773281
Ti -15.9511574   6.7855661  -6.1919640
O  -20.3881201   4.6450983  -0.5852573
O  452.9853304-182.8778012  36.6423361
O  -52.3493445   7.9983856  -6.9364522
          12
E =     0.000000000
Ti  -8.0574916  -2.2129592   8.7086829
Ti   6.5934572  34.0653431 -14.7431012
O   -4.7086692   2.1306267   2.1278095
O    7.0353965   0.7342186   5.4902546
O    5.5318930   1.1054644  -5.9986205
O   24.8491355  -2.3441569  -3.4769642
Ti-419.2534172  65.5498408 114.7064938
O   -3.2453616  19.3743775  -2.6662596
Ti  -7.4620881   6.5645819  -7.7283483
O  -24.9247953   4.4226329   2.9722071
O  427.6044113-129.9923997-150.7024171
O   -3.9624702   0.6024298  51.3102630
          12
E =     0.000000000
Ti  -9.9908725   0.1287675   4.8264207
Ti   6.1834101  27.5673970  -9.0615594
O   -0.8760914  11.0079934   0.6141765
O   -0.2991594   0.8861072  -0.8840717
O    1.0757224   5.0607556   0.7743629
O   23.0169066  -0.4489858  -0.1008286
Ti-190.5344672  -8.4207466  58.9037899
O    3.8010212  17.2392324  -0.2411356
Ti   5.2999595   7.0034400  -8.1042248
O  -28.0089208   2.3205368   0.4788104
O  234.6275686 -52.8627537 -43.9506149
O  -44.2950771  -9.4817439  -3.2551253
          12
E =     0.000000000
Ti  -8.7220331   0.5923218   2.7730604
Ti   6.0472755  34.5264442  -7.6451814
O   -6.4398700  -4.7604135   1.6021461
O   -1.2878979   4.3554511  -2.9408177
O   -0.1416002   5.0603761   2.3144645
O   30.2412841  -1.0363088   1.6893292
Ti-461.7678076 217.0159434 116.7008666
O    2.0199383  17.2381129  -3.2828297
Ti  -5.1047999   5.7106094  -6.1749080
O  -28.2101465   2.6483948   0.7121119
O  591.8563240-300.0184948 -73.1928207
O -118.4906667  18.6675633 -32.5554211
          12
E =     0.000000000
Ti -13.7201320   0.8315258   6.9813642
Ti   9.1756954  38.2511421 -11.2542049
O    3.7563301   6.0044080   5.5127780
O    3.0638184   3.7027536   0.9083643
O    2.0040930  -0.1389441  -1.2471953
O   41.1548540  -2.5042960  -2.2270358
Ti-235.0606399 134.4509898  57.2140054
O    2.5936003  17.6956635  -5.8331129
Ti -20.7580558   6.1527705  -5.8486873
O  -31.6814293   4.7710210   0.0104664
O  274.2797877-203.9474143 -62.1072110
O  -34.8079220  -5.2696200  17.8904690
          12
E =     0.000000000
Ti -13.2710817  -0.3379665   5.2440221
Ti  10.7490287  35.9031305  -8.0501437
O   -1.2788581   5.7698887   4.2190336
O   -1.0930967   4.3390436  -2.7681459
O   -0.4756585   2.7118754   2.4240477
O   35.7635284  -1.0141321   0.0779682
Ti  18.8278775-102.2185557 -43.4187409
O    5.4870506  18.6231032  -3.5949624
Ti  -5.9952729   5.3008185  -5.3661618
O  -36.8377559   3.0134557  -0.9121343
O   55.2571861   6.5573673  63.4141405
O  -67.1329475  21.3519713 -11.2689232
          12
E =     0.000000000
Ti -14.0111717   2.7158446   6.4033731
Ti  12.4594453  36.9279706  -9.5894218
O    3.6908596   8.3702235   4.5692472
O    2.2510865   3.5514645   0.1949181
O    1.3233692  -0.0777825  -0.4220336
O   37.6925643  -1.6926501  -2.0561831
Ti 117.6362700 -78.2519260  -5.9387233
O    0.1469133  18.6425358  -4.5774343
Ti -13.1815748   5.4558704  -5.3960769
O  -36.0256285   4.1092890  -0.7917057
O -178.5140217  36.7261352  -7.3394366
O   66.5318885 -36.4769748  24.9434769
          12
E =     0.000000000
Ti -16.3193397   2.5371455   5.1850067
Ti   8.3745950  43.4549154 -10.8052948
O    3.6691731   2.6731041   3.2419134
O    1.3824184   5.3418791  -1.2384654
O    0.3903095   0.0146760   0.7762780
O   36.4687736  -2.6016715  -0.8914822
Ti-715.1676805 272.9594683 -22.6627223
O    3.5505055  17.0472371  -4.1948378
Ti -15.7600446   5.2642177  -4.9605526
O  -33.6986254   4.6588572  -0.4302103
O  688.8903530-345.4259907  22.0996181
O   38.2195620  -5.9238382  13.8807491
          12
E =     0.000000000
Ti -11.7892450   1.8687770   8.8478660
Ti  13.3155982  36.3224171  -9.7813771
O   -2.7372098  -2.8928855   5.9589229
O    2.6512910   0.9449756   1.1942849
O    2.2553609   2.6683214  -1.4995937
O   31.9490534  -1.0646395  -1.4791316
Ti-553.0307445 125.9754094 225.7364756
O    2.0958532  18.2509593  -4.1965230
Ti  -5.6726002   5.1743617  -6.3279103
O  -33.2005252   2.5539936   0.1473914
O  618.0528602-213.6702269-215.6248974
O  -63.8896922  23.8685367  -2.9755077
          12
E =     0.000000000
Ti -16.4447059   4.3010374   6.1241261
Ti   7.0395467  36.6734211  -4.6982928
O    2.8554884  -9.9258570  12.3304751
O   -4.4638253   7.8809149  -6.7070348
O   -3.9655844   0.4025505   6.1907867
O   29.2716698  -1.5195694   2.6990263
Ti 129.8398423 -92.5513115 -50.4612369
O    6.9715394  17.9767008  -1.8972915
Ti  -5.3818598   5.8069474  -5.9914107
O  -37.1624806   3.9484215  -2.5585576
O  -40.1078959 -37.1130159  96.3919383
O  -68.4517347  64.1197603 -51.4225282
          12
E =     0.000000000
Ti -12.6776063   6.5946431   2.2546776
Ti   9.5050290  39.5413502  -6.0298655
O    2.3390869 -11.7693551  10.6908342
O   -1.3573557   6.5134957  -3.6990722
O   -1.7071175   0.4511059   3.1942861
O   32.3774692  -1.7444090   0.8103383
Ti-136.4653655 113.7707922 -75.5274909
O    4.1041548  17.8414379  -1.9893910
Ti  -7.0070565   5.2927266  -5.1777808
O  -37.9397785   3.7478143  -1.5540586
O  177.6232377-202.0257631  93.0343416
O  -28.7946976  21.7861614 -16.0068188
          12
E =     0.000000000
Ti -12.9699101   8.1761624   3.5148724
Ti   9.7006609  38.7359036  -4.9960546
O    1.3304244 -13.8057952  10.1391825
O   -1.8358615   6.2574844  -4.0068381
O   -1.9628810   0.7505150   3.4861305
O   32.6337732  -1.5268800   0.8337341
Ti-276.7085652 102.4955212   4.1052389
O    4.5606193  16.8228088  -2.8458039
Ti  -5.8962458   5.2098259  -5.0262776
O  -38.7071479   3.4474620  -1.7868441
O  355.4432112-220.5081397  28.0899438
O  -65.5880776  53.9451315 -31.5072840
          12
E =     0.000000000
Ti -13.3674873   8.8745682   4.1218154
Ti  10.8077625  38.0022367  -5.6595827
O    6.7679962 -21.2180882  11.3937121
O   -0.3998927   5.6167386  -2.6515281
O   -1.0005080   0.3752641   2.1627415
O   32.7872062  -1.5914580   0.0498678
Ti-156.4263406  14.6332148 -16.2714154
O    3.6387054  16.4344130  -3.5220907
Ti  -5.7555027   5.3102018  -5.0730308
O  -39.1148368   3.4143593  -1.5188679
O  213.1455985-111.9368521  29.5300790
O  -51.0827006  42.0854018 -12.5617001
          12
E =     0.000000000
Ti -11.5164685   9.1836983   1.3933710
Ti  11.4017516  33.6586266  -6.9106197
O    2.2303744  -2.9079595  11.7326393
O    1.3648036   9.4838105  -2.5991419
O   -1.4424433  -5.6947174   2.4714026
O   36.6966266  -2.3481355  -1.7836965
Ti 299.5432837-230.8291072  13.8189679
O    2.7447098  17.9394865  -4.2246661
Ti -17.3378038   6.2690209  -4.4171264
O  -41.9671517   7.0045622  -2.3258757
O -219.1799704  43.3638720  15.8480907
O  -62.5377120 114.8768423 -23.0033452
          12
E =     0.000000000
Ti -11.5164685   9.1836982   1.3933711
Ti  11.4017516  33.6586267  -6.9106198
O    2.2303741  -2.9079596  11.7326393
O    1.3648036   9.4838103  -2.5991419
O   -1.4424432  -5.6947172   2.4714025
O   36.6966267  -2.3481354  -1.7836965
Ti 299.5432830-230.8291105  13.8189695
O    2.7447098  17.9394865  -4.2246661
Ti -17.3378037   6.2690209  -4.4171264
O  -41.9671515   7.0045622  -2.3258757
O -219.1799696  43.3638766  15.8480888
O  -62.5377120 114.8768413 -23.0033448
          12
E =     0.000000000
Ti -11.5898828   8.9153227   1.6296554
Ti  11.1784738  33.8039573  -7.4925215
O    2.1957538  -2.8137002  11.4183866
O    1.7059416   9.5748724  -2.3514730
O   -1.2394210  -5.8001196   2.1879913
O   36.5867208  -2.3642517  -1.8280783
Ti 269.8609660-223.9520488   1.1798389
O    2.5947325  18.3236835  -4.4555362
Ti -17.4512936   6.3145466  -4.3986374
O  -42.0075196   7.0672289  -2.1852927
O -191.8551485  34.8139407  23.4351121
O  -59.9793228 116.1165682 -17.1394452
          12
E =     0.000000000
Ti  -9.8420628   1.9986416   2.2441005
Ti   8.4498238  37.0494505 -11.2233611
O    0.5989219  -7.3885604   4.1506271
O    2.6626081   6.8105216  -0.6771961
O    0.9296731  -0.3965922  -0.1379571
O   38.7295073  -1.7691287  -1.4536186
Ti-431.5116768 191.1144072  19.5034896
O    2.0620041  13.5791472  -6.1566941
Ti -14.7424061   5.7604426  -3.1660837
O  -38.0614771   4.8001245  -0.1986961
O  558.6178613-321.9488071 -11.1497022
O -117.8927768  70.3903531   8.2650918
          12
E =     0.000000000
Ti  -8.9813340   0.6683584   5.3515625
Ti  10.2704808  40.4759823 -11.5057326
O   -1.1681574   2.0653149   3.1952029
O    2.0900195   1.4705067   0.7244477
O    2.2407018   3.8439284  -1.3986864
O   42.1466924  -0.5005034  -2.3524274
Ti-384.3158602 111.9998487  63.4827955
O    0.7366517  15.6999763  -6.2829757
Ti -11.5836440   4.9415287  -3.6495729
O  -35.0966482   2.2787990  -0.2341596
O  525.3562316-213.4378315 -63.5098753
O -141.6951341  30.4940917  16.1794211
          12
E =     0.000000000
Ti  -8.9813340   0.6683584   5.3515625
Ti  10.2704808  40.4759823 -11.5057326
O   -1.1681574   2.0653149   3.1952029
O    2.0900195   1.4705067   0.7244477
O    2.2407018   3.8439284  -1.3986864
O   42.1466924  -0.5005034  -2.3524274
Ti-384.3158598 111.9998486  63.4827955
O    0.7366517  15.6999763  -6.2829757
Ti -11.5836439   4.9415287  -3.6495729
O  -35.0966482   2.2787990  -0.2341596
O  525.3562314-213.4378314 -63.5098753
O -141.6951342  30.4940917  16.1794211
          12
E =     0.000000000
Ti  -9.0912684   0.9910984   5.3241832
Ti  10.2099391  40.0993016 -11.0373575
O   -0.4519396   2.1759380   3.6356525
O    2.0490893   1.5920738   0.6507841
O    2.1083844   3.4408424  -1.2687624
O   41.9451199  -0.5651717  -2.4209314
Ti-376.9272552  97.9416580  66.8931970
O    0.5445875  15.7411940  -6.0825062
Ti -11.7776786   4.9773889  -3.7569690
O  -35.2692804   2.4578812  -0.3968301
O  508.6793821-200.2598120 -66.2270901
O -132.0190801  31.4076074  14.6866299
          12
E =     0.000000000
Ti  -9.0912684   0.9910984   5.3241832
Ti  10.2099391  40.0993016 -11.0373575
O   -0.4519396   2.1759380   3.6356525
O    2.0490893   1.5920738   0.6507841
O    2.1083844   3.4408424  -1.2687624
O   41.9451199  -0.5651717  -2.4209314
Ti-376.9272553  97.9416580  66.8931970
O    0.5445875  15.7411940  -6.0825062
Ti -11.7776786   4.9773889  -3.7569690
O  -35.2692804   2.4578812  -0.3968301
O  508.6793822-200.2598122 -66.2270901
O -132.0190799  31.4076075  14.6866299
          12
E =     0.000000000
Ti  -9.9063823   1.1688750   5.0453344
Ti  10.2550264  39.9149724 -10.4380502
O   -1.0733802   2.1777585   4.6123848
O    1.4949982   1.5159105   0.2236269
O    1.8008813   3.6833130  -0.7895327
O   42.0975333  -0.6206967  -2.2842931
Ti 266.4846873-231.8628920  34.0993474
O    0.8456840  16.1703705  -5.7126745
Ti -11.6036124   4.9759443  -3.7796149
O  -35.0789035   2.3615586  -0.5746118
O -139.9854362 128.8366435 -32.3437518
O -125.3310960  31.6782424  11.9418356
          12
E =     0.000000000
Ti  -9.6696143   0.7980203   5.2876217
Ti  10.1834565  40.1150660 -10.7614451
O   -0.8994593   2.3426228   4.1903869
O    1.7707192   1.1312313   0.5806075
O    2.0996276   3.9135870  -1.1614110
O   42.2622168  -0.5189498  -2.4214754
Ti 251.9696781-237.0824509  56.3054042
O    0.6285243  16.1088222  -5.7890841
Ti -11.4345054   4.9598564  -3.7894940
O  -34.8979567   2.2116684  -0.4583964
O -127.5372638 137.1634355 -54.8836001
O -124.4754230  28.8570908  12.9008857
          12
E =     0.000000000
Ti -11.0486560   3.3969736   2.0148827
Ti   7.4877098  42.0214686 -10.0118845
O   -2.5030651  -9.4658423   6.6341993
O   -1.7561302   1.7453581  -2.4883763
O   -0.0154088   6.5401667   1.7442090
O   42.8164860  -0.2197703  -0.6640865
Ti-508.8016434 232.9159548  -8.2546270
O    4.3525110  18.4196258  -1.1941999
Ti  -9.7371597   5.1838024  -2.8809157
O  -32.9748032   1.4445549  -0.7697318
O  496.8090074-241.1267393  23.9353400
O   15.3711522 -60.8555529  -8.0648093
          12
E =     0.000000000
Ti  -9.0123560   2.4974560   6.5604112
Ti   7.1194821  37.7127364 -14.8711482
O   -2.8105248   1.4615272   2.7020864
O    8.4802410   4.4005211   4.9349788
O    4.7325482  -3.4093382  -5.5486863
O   37.2547762  -1.4213136  -4.4129881
Ti-415.0520306 171.3785265 103.1621782
O   -1.5964061  19.6767617  -5.3300120
Ti -15.6565352   6.3129942  -4.3109829
O  -38.8780621   5.4940104   0.5046218
O  507.8072249-318.4196259-140.1002363
O  -82.3883575  74.3157442  56.7097775
          12
E =     0.000000000
Ti  -9.0123560   2.4974560   6.5604112
Ti   7.1194821  37.7127364 -14.8711482
O   -2.8105248   1.4615272   2.7020864
O    8.4802410   4.4005211   4.9349788
O    4.7325483  -3.4093382  -5.5486863
O   37.2547762  -1.4213136  -4.4129881
Ti-415.0520306 171.3785264 103.1621782
O   -1.5964061  19.6767617  -5.3300120
Ti -15.6565352   6.3129942  -4.3109829
O  -38.8780621   5.4940104   0.5046218
O  507.8072249-318.4196257-140.1002364
O  -82.3883576  74.3157442  56.7097776
          12
E =     0.000000000
Ti  -9.2144946   2.2245188   5.5026943
Ti   7.8496610  36.6949126 -11.8832126
O   -1.6907146   2.9452761   3.2209026
O    4.8326490   6.1427588   1.3606616
O    2.0515592  -2.7391533  -1.9280409
O   37.3775955  -1.5950257  -2.8771059
Ti-383.4391151 145.9498826  56.5034829
O    0.2255559  18.9212124  -5.5456132
Ti -15.5340247   6.1739780  -3.9046681
O  -38.7376630   5.5189942  -0.4122592
O  519.5149762-318.8284274 -62.4280956
O -123.2359847  98.5910728  22.3912540
          12
E =     0.000000000
Ti  -9.2144946   2.2245188   5.5026943
Ti   7.8496610  36.6949126 -11.8832126
O   -1.6907146   2.9452761   3.2209026
O    4.8326490   6.1427589   1.3606616
O    2.0515592  -2.7391533  -1.9280409
O   37.3775955  -1.5950257  -2.8771059
Ti-383.4391150 145.9498826  56.5034829
O    0.2255559  18.9212124  -5.5456132
Ti -15.5340247   6.1739780  -3.9046681
O  -38.7376630   5.5189942  -0.4122592
O  519.5149759-318.8284276 -62.4280955
O -123.2359845  98.5910731  22.3912540
          12
E =     0.000000000
Ti  -9.1642542   2.1106311   5.8579906
Ti   7.9154754  36.6429494 -11.8777306
O   -1.1035072   4.1817046   3.5649821
O    4.9722099   5.7713233   1.6054394
O    2.2035393  -2.7693599  -2.1229815
O   37.4440870  -1.5616987  -3.0774024
Ti-377.5875915 134.4726291  64.1906372
O   -0.0584192  18.8412431  -5.7754142
Ti -15.4486123   6.1915418  -4.0365931
O  -38.6464492   5.4617900  -0.4769503
O  508.8573689-304.9819479 -72.1417041
O -119.3838469  95.6391941  24.2897269
          12
E =     0.000000000
Ti  -9.1642542   2.1106311   5.8579906
Ti   7.9154754  36.6429494 -11.8777306
O   -1.1035072   4.1817046   3.5649821
O    4.9722099   5.7713233   1.6054394
O    2.2035393  -2.7693599  -2.1229815
O   37.4440870  -1.5616987  -3.0774024
Ti-377.5875915 134.4726294  64.1906371
O   -0.0584192  18.8412431  -5.7754142
Ti -15.4486123   6.1915418  -4.0365931
O  -38.6464492   5.4617900  -0.4769503
O  508.8573687-304.9819482 -72.1417039
O -119.3838467  95.6391940  24.2897268
          12
E =     0.000000000
Ti  -9.0966366   1.7519853   5.9884122
Ti   7.8922578  37.4721941 -12.2681299
O   -1.1603481   4.5920869   4.0338977
O    4.6374969   4.8312122   1.6557657
O    2.3124037  -1.7661640  -2.1721255
O   38.1190238  -1.3682826  -3.0639258
Ti-401.7125413 144.0380039  55.1038302
O   -0.5050835  17.7915074  -6.1636492
Ti -14.7445658   6.0664413  -4.0635104
O  -37.9468257   4.9406054  -0.4835184
O  533.4445579-302.5685116 -65.9395250
O -121.2397391  84.2189218  27.3724784
          12
E =     0.000000000
Ti  -9.0966366   1.7519852   5.9884122
Ti   7.8922578  37.4721941 -12.2681299
O   -1.1603481   4.5920869   4.0338977
O    4.6374969   4.8312122   1.6557657
O    2.3124037  -1.7661639  -2.1721255
O   38.1190238  -1.3682826  -3.0639258
Ti-401.7125412 144.0380037  55.1038302
O   -0.5050835  17.7915074  -6.1636492
Ti -14.7445658   6.0664413  -4.0635104
O  -37.9468257   4.9406054  -0.4835184
O  533.4445581-302.5685114 -65.9395251
O -121.2397394  84.2189218  27.3724785
          12
E =     0.000000000
Ti  -8.9085702   1.4643505   5.9079481
Ti   8.5378668  37.5624324 -12.4837523
O   -0.9625223   5.3359275   3.7508059
O    4.2201362   3.8464437   1.6515051
O    2.4475354  -0.5235395  -2.1663888
O   38.9315888  -1.1653313  -3.0195420
Ti 224.3359182-186.4500991  66.1254560
O    0.0360096  17.7489549  -5.7611526
Ti -13.9750808   5.8317532  -4.0073160
O  -37.1347666   4.3068317  -0.4273917
O -102.2836067  43.1484350 -74.6398782
O -115.2445087  68.8938412  25.0697066
          12
E =     0.000000000
Ti  -8.7828649   1.8355024   6.1603204
Ti   7.9746984  37.5753880 -12.4653063
O   -1.2475503   4.3046960   4.4870990
O    4.8827702   4.4184979   1.9966623
O    2.5541031  -1.7249242  -2.4856266
O   38.2059506  -1.2959445  -3.2684035
Ti-399.4615727 135.0075289  57.5670516
O   -0.6950145  17.5306104  -6.1470554
Ti -14.6276048   6.0659178  -4.1582329
O  -37.8120924   4.8586964  -0.4761767
O  524.6053081-288.6072528 -72.4840020
O -115.5961309  80.0312837  31.2736700
          12
E =     0.000000000
Ti  -8.7613565   1.9446745   6.1263729
Ti   7.9518899  37.5275578 -12.4626482
O   -1.2542215   4.1436717   4.6584384
O    4.9278447   4.4490090   2.0217045
O    2.5611612  -1.8281238  -2.4996226
O   38.1378253  -1.2991966  -3.2939209
Ti-399.5579392 133.9817673  59.0324004
O   -0.6961281  17.5453296  -6.1198378
Ti -14.6787505   6.0920098  -4.1738894
O  -37.8504811   4.9045925  -0.4902982
O  522.8378088-287.8311460 -74.0564789
O -113.6176531  80.3698542  31.2577798
          12
E =     0.000000000
Ti  -8.7613564   1.9446745   6.1263729
Ti   7.9518899  37.5275577 -12.4626482
O   -1.2542215   4.1436717   4.6584384
O    4.9278447   4.4490090   2.0217045
O    2.5611612  -1.8281238  -2.4996226
O   38.1378253  -1.2991966  -3.2939209
Ti-399.5579391 133.9817673  59.0324004
O   -0.6961281  17.5453296  -6.1198378
Ti -14.6787505   6.0920098  -4.1738894
O  -37.8504811   4.9045925  -0.4902982
O  522.8378088-287.8311460 -74.0564789
O -113.6176533  80.3698542  31.2577798
          12
E =     0.000000000
Ti  -8.6352151   2.9082587   6.4086759
Ti   8.3112702  36.6679537 -12.4394289
O   -1.6455582   5.1370423   2.8365358
O    5.1061467   4.3275355   2.2112166
O    2.7018838  -1.9321115  -2.6611615
O   38.1085059  -1.2767764  -3.4248043
Ti 190.1713042-161.0116881  98.6850037
O   -0.7491352  16.8562222  -5.6166507
Ti -14.7718254   5.9712140  -4.1867112
O  -37.8672379   4.9051223  -0.4823610
O  -69.7045580   5.2927666-107.2319909
O -111.0255810  82.1544609  25.9016766
          12
E =     0.000000000
Ti  -8.7929025   2.7911862   6.3930206
Ti   8.2235661  36.7838913 -12.8263375
O   -2.3969151   5.0622209   3.0501874
O    5.1487405   4.3966717   2.2193837
O    2.7129612  -1.9458695  -2.6848992
O   38.0547306  -1.3310420  -3.3917543
Ti 188.5137682-157.0092915  83.0954582
O   -0.5473034  16.9504910  -5.5267376
Ti -14.7806188   6.0391049  -4.1619679
O  -37.8747436   4.9256512  -0.4439861
O  -64.1729068  -1.0762429 -94.0773562
O -114.0883763  84.4132286  28.3549888
          12
E =     0.000000000
Ti  -6.7045186   9.4800139   1.1343090
Ti   7.2057802  32.1094012 -13.2036441
O   -7.2507104   0.8625293  13.6150479
O    1.7873539   0.6966635   0.9502075
O    1.6679603   3.4347665  -1.5725608
O   40.2667690   0.1685469  -2.4893018
Ti 375.3834894-278.6082702  69.8260310
O    3.4666834  18.3846112  -3.2581236
Ti  -9.3614109   6.0932842  -4.0291772
O  -31.2633059   1.9935690  -1.0045836
O  -38.2303114  55.5232484 -47.2847341
O -336.9677790 149.8616361 -12.6834701
          12
E =     0.000000000
Ti  -2.0770253  10.4448168   0.1640934
Ti   9.4394347  14.1924676   1.3718445
O    0.7142844 -20.0821216  10.8659033
O    0.0112511   2.8705970  -1.2322237
O   -0.5285035   2.7290446  -0.0480731
O   37.5513757   1.4292843  -1.0695129
Ti -40.7230774 -56.3563720  80.7428154
O    7.7601100  18.1894675   0.0358640
Ti  -8.1149676   7.6958293  -3.5830452
O  -28.2040442   2.4520691  -1.7065840
O  208.0072129 -63.7859309 -28.7302483
O -183.8360508  80.2208483 -56.8108336
          12
E =     0.000000000
Ti  -3.8093284  14.3682139   1.3245983
Ti  13.2020849  11.3356200   2.4849381
O    3.4338089 -17.7793688   8.3988501
O   -1.3605867  -0.0174826  -1.3672844
O   -0.6001930   5.7372108   0.1206830
O   38.8011705   1.9225178  -1.2017056
Ti -82.9340779 -60.1366089 104.6386009
O    7.2690973  15.1358944   0.0195652
Ti  -6.4479859   7.7673176  -3.6413022
O  -24.7755186   0.8327562  -1.9385615
O  399.8419002 -97.8586554 -30.7310881
O -342.6203711 118.6925850 -78.1072939
          12
E =     0.000000000
Ti  -3.1174550  10.3804573  -1.8802048
Ti  12.9107591  11.2743500   2.2095884
O   -7.4327244  -1.4648987   2.2804081
O   -1.6601947   2.1367788  -2.5135226
O   -1.0108713   6.5275113   0.8740733
O   35.6164710   1.8612887   0.0958273
Ti-203.1851270 -54.7661845  -7.9381532
O    7.1666873  21.0579987  -1.9145362
Ti  -7.2311961   9.6094581  -2.4726856
O  -21.7214749   0.9799584  -1.1476397
O  471.8231128-144.1741552  55.0571152
O -282.1579868 136.5774371 -42.6502702
          12
E =     0.000000000
Ti  -3.1174550  10.3804574  -1.8802048
Ti  12.9107592  11.2743499   2.2095884
O   -7.4327244  -1.4648987   2.2804080
O   -1.6601946   2.1367789  -2.5135225
O   -1.0108712   6.5275112   0.8740733
O   35.6164709   1.8612887   0.0958272
Ti-203.1851280 -54.7661836  -7.9381537
O    7.1666873  21.0579987  -1.9145361
Ti  -7.2311962   9.6094581  -2.4726856
O  -21.7214750   0.9799585  -1.1476396
O  471.8231121-144.1741566  55.0571144
O -282.1579852 136.5774375 -42.6502688
          12
E =     0.000000000
Ti  -3.2643786  10.3850469  -1.5433268
Ti  12.7683242  11.4201759   2.1788903
O   -6.7786335  -1.6592593   2.1891723
O   -1.4531010   1.9706296  -2.2863753
O   -0.8527718   6.5002285   0.6527338
O   35.6415254   1.8979597  -0.0409464
Ti-202.0974262 -52.1257703 -10.5804880
O    6.9351847  21.2141196  -1.9121250
Ti  -7.2460630   9.6553874  -2.5120111
O  -21.6878416   0.9681739  -1.0982923
O  474.6413555-145.0902849  52.3948609
O -286.6061741 134.8635929 -37.4420924
          12
E =     0.000000000
Ti  -3.2643786  10.3850469  -1.5433268
Ti  12.7683242  11.4201759   2.1788903
O   -6.7786335  -1.6592593   2.1891723
O   -1.4531010   1.9706296  -2.2863753
O   -0.8527718   6.5002285   0.6527338
O   35.6415254   1.8979597  -0.0409464
Ti-202.0974262 -52.1257703 -10.5804880
O    6.9351847  21.2141196  -1.9121250
Ti  -7.2460630   9.6553874  -2.5120111
O  -21.6878416   0.9681739  -1.0982923
O  474.6413555-145.0902850  52.3948609
O -286.6061742 134.8635929 -37.4420924
          12
E =     0.000000000
Ti  -3.4295332  10.1014411  -1.1636033
Ti  12.8375408  10.9748910   2.7764332
O   -5.6965046  -3.4406368   0.9911203
O   -1.4781924   1.8647473  -2.2705574
O   -0.8211917   6.7941608   0.5784696
O   35.8052929   1.9799686  -0.0110072
Ti-205.3615960 -56.1947420  -6.8908370
O    7.2076051  21.1473086  -1.4860580
Ti  -7.0992722   9.6998594  -2.4368769
O  -21.5270029   0.8373308  -1.0153004
O  475.0629450-135.8791623  49.6826438
O -285.5000908 132.1148335 -38.7544266
          12
E =     0.000000000
Ti  -3.4295332  10.1014411  -1.1636033
Ti  12.8375408  10.9748910   2.7764332
O   -5.6965046  -3.4406368   0.9911203
O   -1.4781924   1.8647473  -2.2705574
O   -0.8211917   6.7941608   0.5784696
O   35.8052929   1.9799686  -0.0110072
Ti-205.3615960 -56.1947420  -6.8908370
O    7.2076051  21.1473086  -1.4860580
Ti  -7.0992722   9.6998594  -2.4368769
O  -21.5270029   0.8373308  -1.0153004
O  475.0629450-135.8791623  49.6826438
O -285.5000908 132.1148335 -38.7544266
          12
E =     0.000000000
Ti  -3.6391369   9.9424625  -0.7769135
Ti  12.5130479  11.0691597   2.7102511
O   -5.1949325  -3.3786786   1.1638663
O   -1.2263696   1.5771899  -1.9643578
O   -0.6079707   6.8071795   0.2843640
O   35.8728684   2.0441454  -0.2005544
Ti-202.9519577 -55.1234531  -8.5033831
O    6.8525018  21.3916352  -1.4582676
Ti  -7.0749700   9.7409702  -2.5019782
O  -21.4512168   0.7835532  -0.9590936
O  479.5692803-136.5189219  45.5318128
O -292.6611441 131.6647580 -33.3257460
          12
E =     0.000000000
Ti  -3.6391369   9.9424625  -0.7769135
Ti  12.5130479  11.0691597   2.7102511
O   -5.1949325  -3.3786786   1.1638663
O   -1.2263696   1.5771899  -1.9643578
O   -0.6079707   6.8071795   0.2843640
O   35.8728684   2.0441454  -0.2005545
Ti-202.9519576 -55.1234530  -8.5033832
O    6.8525018  21.3916352  -1.4582676
Ti  -7.0749700   9.7409702  -2.5019782
O  -21.4512168   0.7835532  -0.9590936
O  479.5692803-136.5189220  45.5318128
O -292.6611443 131.6647580 -33.3257459
          12
E =     0.000000000
Ti  -3.7220183  10.0267429  -0.7707415
Ti  11.6474873  10.9594801   2.7519912
O   -4.7309849  -3.4193823  -0.5190371
O   -1.4156897   1.6404685  -2.1411293
O   -0.6874712   7.1402590   0.3997339
O   36.0182385   2.0515376  -0.0398768
Ti-194.8437266 -61.2650864 -16.8537645
O    7.3517919  21.4843156  -0.8267501
Ti  -6.9733159   9.7251667  -2.3811534
O  -21.2952592   0.6582833  -0.8944188
O  481.4260322-134.1269516  52.3204458
O -302.7750843 135.1251668 -31.0452994
          12
E =     0.000000000
Ti  -3.7220183  10.0267429  -0.7707415
Ti  11.6474873  10.9594801   2.7519912
O   -4.7309849  -3.4193823  -0.5190371
O   -1.4156897   1.6404685  -2.1411293
O   -0.6874712   7.1402590   0.3997339
O   36.0182385   2.0515376  -0.0398768
Ti-194.8437264 -61.2650864 -16.8537646
O    7.3517919  21.4843156  -0.8267501
Ti  -6.9733159   9.7251667  -2.3811535
O  -21.2952592   0.6582833  -0.8944188
O  481.4260323-134.1269517  52.3204458
O -302.7750845 135.1251668 -31.0452993
          12
E =     0.000000000
Ti  -4.1017282   9.6303139  -0.5406190
Ti  11.2979278  11.1320945   2.9467812
O   -4.6710525  -3.3224659  -0.0084161
O   -1.4473852   1.2596299  -2.0341975
O   -0.6142301   7.4222292   0.2936709
O   36.2483147   2.1402921  -0.1267379
Ti-202.8974503 -47.7276551 -18.0140235
O    7.1411232  21.7697974  -0.7375251
Ti  -6.7917598   9.7370926  -2.4167605
O  -21.0599409   0.4715465  -0.8936098
O  487.4315208-136.1405584  51.3049520
O -300.5353396 123.6276834 -29.7735147
          12
E =     0.000000000
Ti  -4.1017282   9.6303139  -0.5406190
Ti  11.2979278  11.1320945   2.9467812
O   -4.6710525  -3.3224659  -0.0084161
O   -1.4473852   1.2596299  -2.0341975
O   -0.6142301   7.4222292   0.2936709
O   36.2483147   2.1402921  -0.1267379
Ti-202.8974506 -47.7276551 -18.0140235
O    7.1411232  21.7697974  -0.7375251
Ti  -6.7917598   9.7370926  -2.4167605
O  -21.0599409   0.4715465  -0.8936098
O  487.4315207-136.1405583  51.3049521
O -300.5353391 123.6276833 -29.7735148
          12
E =     0.000000000
Ti  -4.4107853   9.3600176  -0.4036007
Ti  11.1284064  11.0576834   2.9324929
O   -4.8419541  -3.0736852   1.0866448
O   -1.5765144   1.1866134  -2.1154282
O   -0.7039609   7.3532683   0.4169200
O   36.2622436   2.1605746  -0.1652537
Ti-202.6263096 -43.9085213 -21.4068015
O    7.0286350  21.9294014  -0.6386222
Ti  -6.8152578   9.8101076  -2.4813111
O  -21.0326910   0.4878844  -1.0197002
O  492.9183009-140.5842195  53.9457377
O -305.3301130 124.2208750 -30.1510777
          12
E =     0.000000000
Ti  -4.4107853   9.3600176  -0.4036007
Ti  11.1284064  11.0576834   2.9324929
O   -4.8419541  -3.0736851   1.0866448
O   -1.5765144   1.1866134  -2.1154282
O   -0.7039609   7.3532683   0.4169200
O   36.2622436   2.1605746  -0.1652537
Ti-202.6263098 -43.9085213 -21.4068014
O    7.0286350  21.9294014  -0.6386222
Ti  -6.8152578   9.8101076  -2.4813111
O  -21.0326910   0.4878844  -1.0197002
O  492.9183008-140.5842193  53.9457377
O -305.3301127 124.2208749 -30.1510777
          12
E =     0.000000000
Ti  -4.5085899   9.4321570  -0.3657875
Ti  11.1028417  10.8651787   2.9373798
O   -5.0823422  -3.4952277   2.6957327
O   -1.4997710   1.0827014  -2.0174780
O   -0.6872073   7.1110965   0.3697670
O   36.1961098   2.1727912  -0.3095591
Ti-200.6569140 -41.1947124 -20.1928509
O    6.8492093  22.2371646  -0.5039596
Ti  -6.9170450   9.8919816  -2.5943029
O  -21.0866447   0.5716027  -1.1224328
O  497.8460463-146.0902130  52.0243075
O -311.5556932 127.4154792 -30.9208161
