          12
E =     0.000000000
Ti  13.7474701 -41.0211560  -0.9039427
Ti  -3.0550322  10.8754842   0.0489618
O  -12.6427192  12.1637875   0.5371457
O   -3.2205641   1.4042731   7.3477806
O    4.4213744   1.4956848   7.6878685
O    1.9651110  -6.1590348  -1.6699554
Ti  33.5113734 -23.1428672  -8.3372637
O   -3.0061592  10.5906354  -1.1086757
Ti -18.8540576  11.0688100   0.5646725
O   -6.3487742  10.6463912   5.5012087
O    0.5850042   3.8718847  -5.2361906
O   -7.1030268   8.2061071  -4.4316097
          12
E =     0.000000000
Ti  13.7443879 -41.0646858  -0.9176585
Ti  -3.0641491  10.8684156   0.0469711
O  -12.6555264  12.1558586   0.5346154
O   -3.1980343   1.4045883   7.3387159
O    4.3987254   1.4929829   7.6633180
O    1.9581318  -6.1442751  -1.6656449
Ti  33.4644573 -23.1285602  -8.2832960
O   -2.9856714  10.6017533  -1.0882547
Ti -18.8428400  11.0991539   0.5817959
O   -6.3177602  10.6625381   5.5160455
O    0.6104716   3.8643461  -5.2870517
O   -7.1121925   8.1878843  -4.4395560
          12
E =     0.000000000
Ti  17.0082279 -33.3096316   0.0533394
Ti  -3.7696941  10.5250267  -0.0506881
O  -12.9959106  11.5716101   0.9013006
O   -2.1374466   0.9250223   6.1985676
O    3.3872663   1.4312810   6.9787639
O    1.6345055  -5.5352861  -1.3569006
Ti  29.0512505 -23.7392354  -6.6464185
O   -1.9285703  11.0580856  -0.2649838
Ti -19.3118318  12.9455330   1.7996950
O   -5.5115707   2.3210107   2.0756226
O    2.2449979   4.1235365  -5.0830169
O   -7.6712240   7.6830472  -4.6052811
          12
E =     0.000000000
Ti  17.4595439 -32.3573876   1.9608005
Ti  -4.6047956  11.3301366  -1.7125489
O  -14.2112990  10.5527631   0.4935820
O   -1.7330019   0.4040118   4.4353895
O    2.8965426   1.6938010   5.7605886
O    1.6380670  -4.5862635  -1.5417972
Ti  26.1073246 -26.7292784  -3.6074052
O   -0.5439612  10.4416332   1.6945870
Ti -17.1684257  15.6480806   1.6255877
O   -5.4361825   3.5715418   1.1835301
O    3.6555155   2.8601133  -5.9401246
O   -8.0593277   7.1708480  -4.3521897
          12
E =     0.000000000
Ti  16.2377702 -28.5112682   6.4420659
Ti  -5.4106938  11.1528835  -2.6015357
O  -12.5687390   8.3511048   0.9101290
O   -0.5318725   0.3325549   0.5207860
O    2.0582052   1.4131151   5.3060220
O    1.1688602  -3.9918813  -1.3375847
Ti  26.4925537 -21.5063970   2.6481423
O    0.3062082   5.1360549  -2.6760650
Ti -16.5171642  17.8298886   2.5215039
O   -5.4046681   1.2708255  -0.0695447
O    4.7258088   1.0690034  -5.2110821
O  -10.5562687   7.4541158  -6.4528368
          12
E =     0.000000000
Ti  13.6958099 -17.7789669  11.0278946
Ti  -7.1423911  10.7692828  -4.6984396
O   -9.8636793   5.1070297   0.1227212
O    0.0964281   0.7881883  -2.3487863
O    1.6703535   0.6871751   4.4676720
O    0.0591706  -3.2504625  -1.8571601
Ti  23.1892338 -18.6559947   6.9289957
O    1.3232503  -0.0001481  -3.8926669
Ti -14.7276605  17.3676180   2.5956637
O   -3.3433334  -5.6053317  -3.0590648
O   -0.3518738   3.6835139  -2.3617539
O   -4.6053080   6.8880963  -6.9250755
          12
E =     0.000000000
Ti  14.1268761 -15.7683822   8.9116644
Ti  -7.8425482  11.0179472  -6.0890825
O   -7.2331230   3.8826285   1.1558500
O   -0.5597395   0.7355302  -1.7633417
O    1.3874899   0.6178441   3.8561005
O   -0.0465706  -2.7541489  -1.7779525
Ti  19.7952383 -16.1734291   8.0330946
O    0.5296434  -4.0956483  -4.9067563
Ti -13.1031484  18.8110030   3.6386584
O   -4.1648158  -5.9649482  -4.6908069
O   -2.6926452   3.8179788   0.0451368
O   -0.1966570   5.8736249  -6.4125648
          12
E =     0.000000000
Ti  33.1661277  24.8782983   0.7031908
Ti  -8.0215581  -9.9758010  12.9267097
O  -22.0339272 -11.6682458   3.1874856
O   -0.7611647  -0.4765664   1.3798318
O    0.7056925  -0.1359189   3.3697440
O   -9.4031770  -3.6869597  -0.1283989
Ti -30.8527558  -3.4715483  -5.3864831
O  -12.5716535 -10.4595565  -0.4622116
Ti  42.1237031   7.6515162 -19.0156385
O    0.1704796   4.4544758  -1.0846080
O  -10.9074957  -2.2369918   4.8819176
O   18.3857289   5.1272982  -0.3715394
          12
E =     0.000000000
Ti   8.2497740  14.6590581   3.6825567
Ti  -9.6623460 -10.2481382  13.4132417
O   -1.0777484  -0.4683863   3.6573539
O   -0.5808777  -0.2961493  -0.1781048
O    0.3867244  -0.5131127   3.2015401
O  -10.1265270  -3.4308567   0.0912019
Ti -29.1065102  -4.6577727  -4.8557191
O  -12.4305655 -10.2410030   0.2934286
Ti  33.9058826   2.9931771 -26.1840179
O   13.8964820   9.8374928   2.9644349
O   -9.9511598  -2.3216667   4.7098735
O   16.4968717   4.6873577  -0.7957895
          12
E =     0.000000000
Ti  28.0299866  36.7947106  32.5283753
Ti -14.7383750 -10.0364885  13.8260563
O   -8.5645420 -18.0702802 -19.7241965
O   -1.7740970  -2.4814544  -7.1190958
O   -1.4014179  -0.2218606   3.8883397
O   -9.5393355  -1.9520812   0.2300876
Ti -25.7362654  -5.4524429  -2.5301736
O  -10.9290708  -9.1103512   2.1004604
Ti  39.7441963   9.4432809 -29.5314099
O    0.9704123   0.4989212   1.6035554
O   -8.4502518  -4.5982176   4.8978757
O   12.3887602   5.1862638  -0.1698745
